build/datapreprocessor/datapreprocessor/datapreprocessor/data/opendss/8500Bus/IEEE8500u_EXP_CURRENTS.CSV
Element, I1_1, Ang1_1, I1_2, Ang1_2, I1_3, Ang1_3, I1_4, Ang1_4, Iresid1, AngResid1, I2_1, Ang2_1, I2_2, Ang2_2, I2_3, Ang2_3, I2_4, Ang2_4, Iresid2, AngResid2, I3_1, Ang3_1, I3_2, Ang3_2, I3_3, Ang3_3, I3_4, Ang3_4, Iresid3, AngResid3
Vsource.SOURCE,    60.1357,   170.68,    54.7808,    52.59,    59.2879,   -63.93,          0,     0.00, 7.70702E-009,  -104.82,    60.1357,    -9.32,    54.7808,  -127.41,    59.2879,   116.07,          0,     0.00, 7.70702E-009,    75.18,          0,     0.00,          0,     0.00,          0,     0.00,          0,     0.00,          0,     0.00
Line.HVMV_SUB_CONNECTOR,    553.193,   -38.17,    535.441,  -159.42,    501.903,    87.27,          0,     0.00,    51.2808,  -145.89,    553.193,   141.83,    535.441,    20.58,    501.903,   -92.73,          0,     0.00,    51.2808,    34.11,          0,     0.00,          0,     0.00,          0,     0.00,          0,     0.00,          0,     0.00
Line.LN5502549-1,     1.9602,   177.88,          0,     0.00,          0,     0.00,          0,     0.00,     1.9602,   177.88,    1.96034,    -2.13,          0,     0.00,          0,     0.00,          0,     0.00,    1.96034,    -2.13,          0,     0.00,          0,     0.00,          0,     0.00,          0,     0.00,          0,     0.00
Line.LN6259988-1,    1.45542,    65.36,          0,     0.00,          0,     0.00,          0,     0.00,    1.45542,    65.36,    1.45592,  -114.71,          0,     0.00,          0,     0.00,          0,     0.00,    1.45592,  -114.71,          0,     0.00,          0,     0.00,          0,     0.00,          0,     0.00,          0,     0.00
Line.LN6077796-1,    1.69669,   179.62,          0,     0.00,          0,     0.00,          0,     0.00,    1.69669,   179.62,    1.69674,    -0.39,          0,     0.00,          0,     0.00,          0,     0.00,    1.69674,    -0.39,          0,     0.00,          0,     0.00,          0,     0.00,          0,     0.00,          0,     0.00
Line.LN5835135-2,    16.6451,   178.12,          0,     0.00,          0,     0.00,          0,     0.00,    16.6451,   178.12,    16.6453,    -1.88,          0,     0.00,          0,     0.00,          0,     0.00,    16.6453,    -1.88,          0,     0.00,          0,     0.00,          0,     0.00,          0,     0.00,          0,     0.00
Line.LN5896826-1,   0.831637,  -171.28,          0,     0.00,          0,     0.00,          0,     0.00,   0.831637,  -171.28,   0.832581,     8.48,          0,     0.00,          0,     0.00,          0,     0.00,   0.832581,     8.48,          0,     0.00,          0,     0.00,          0,     0.00,          0,     0.00,          0,     0.00
Line.LN5714038-1,    2.20304,  -175.08,          0,     0.00,          0,     0.00,          0,     0.00,    2.20304,  -175.08,    2.20349,     4.87,          0,     0.00,          0,     0.00,          0,     0.00,    2.20349,     4.87,          0,     0.00,          0,     0.00,          0,     0.00,          0,     0.00,          0,     0.00
Line.LN5653457-1,    20.0262,   -59.73,     42.189,   177.88,    16.0405,    64.64,          0,     0.00,    25.2256,  -177.18,    20.0268,   120.26,    42.1898,    -2.12,    16.0409,  -115.37,          0,     0.00,    25.2256,     2.82,          0,     0.00,          0,     0.00,          0,     0.00,          0,     0.00,          0,     0.00
Line.LN5835173-1,    28.5492,   -59.12,    63.6501,   178.04,    48.6672,    63.99,          0,     0.00,     34.947,   142.21,    28.5495,   120.88,    63.6505,    -1.96,    48.6674,  -116.01,          0,     0.00,     34.947,   -37.79,          0,     0.00,          0,     0.00,          0,     0.00,          0,     0.00,          0,     0.00
Line.LN6321415-1,    1.43354,  -173.75,          0,     0.00,          0,     0.00,          0,     0.00,    1.43354,  -173.75,    1.43396,     6.19,          0,     0.00,          0,     0.00,          0,     0.00,    1.43396,     6.19,          0,     0.00,          0,     0.00,          0,     0.00,          0,     0.00,          0,     0.00
Line.LN5565092-1,    2.18096,    64.56,          0,     0.00,          0,     0.00,          0,     0.00,    2.18096,    64.56,    2.18098,  -115.44,          0,     0.00,          0,     0.00,          0,     0.00,    2.18098,  -115.44,          0,     0.00,          0,     0.00,          0,     0.00,          0,     0.00,          0,     0.00
Line.LN6073648-1,    3.08448,   -55.70,          0,     0.00,          0,     0.00,          0,     0.00,    3.08448,   -55.70,    3.08451,   124.30,          0,     0.00,          0,     0.00,          0,     0.00,    3.08451,   124.30,          0,     0.00,          0,     0.00,          0,     0.00,          0,     0.00,          0,     0.00
Line.LN5774457-1,    30.0604,   -59.83,    24.1146,   178.07,    23.1247,    64.56,          0,     0.00,    4.39552,   -77.61,    30.0608,   120.17,     24.115,    -1.93,    23.1249,  -115.45,          0,     0.00,    4.39552,   102.39,          0,     0.00,          0,     0.00,          0,     0.00,          0,     0.00,          0,     0.00
Line.LN5534966-3,     11.102,   -59.32,          0,     0.00,          0,     0.00,          0,     0.00,     11.102,   -59.32,    11.1021,   120.68,          0,     0.00,          0,     0.00,          0,     0.00,    11.1021,   120.68,          0,     0.00,          0,     0.00,          0,     0.00,          0,     0.00,          0,     0.00
Line.LN5859996-1,    2.81002,   178.31,          0,     0.00,          0,     0.00,          0,     0.00,    2.81002,   178.31,    2.81004,    -1.69,          0,     0.00,          0,     0.00,          0,     0.00,    2.81004,    -1.69,          0,     0.00,          0,     0.00,          0,     0.00,          0,     0.00,          0,     0.00
Line.LN6138610-2,    119.193,   -59.38,    91.3171,   178.28,    105.067,    64.36,          0,     0.00,    15.7504,   -18.91,    119.193,   120.62,    91.3173,    -1.72,    105.067,  -115.64,          0,     0.00,    15.7504,   161.09,          0,     0.00,          0,     0.00,          0,     0.00,          0,     0.00,          0,     0.00
Line.LN6258435-3,    2.53485,   -59.32,          0,     0.00,          0,     0.00,          0,     0.00,    2.53485,   -59.32,    2.53528,   120.64,          0,     0.00,          0,     0.00,          0,     0.00,    2.53528,   120.64,          0,     0.00,          0,     0.00,          0,     0.00,          0,     0.00,          0,     0.00
Line.LN5804790-1,    1.48627,    66.30,          0,     0.00,          0,     0.00,          0,     0.00,    1.48627,    66.30,    1.48714,  -113.83,          0,     0.00,          0,     0.00,          0,     0.00,    1.48714,  -113.83,          0,     0.00,          0,     0.00,          0,     0.00,          0,     0.00,          0,     0.00
Line.LN6900591-14,    4.60508,   -59.75,          0,     0.00,          0,     0.00,          0,     0.00,    4.60508,   -59.75,    4.60537,   120.24,          0,     0.00,          0,     0.00,          0,     0.00,    4.60537,   120.24,          0,     0.00,          0,     0.00,          0,     0.00,          0,     0.00,          0,     0.00
Line.LN6409873-1,    10.6296,  -175.10,          0,     0.00,          0,     0.00,          0,     0.00,    10.6296,  -175.10,    10.6299,     4.89,          0,     0.00,          0,     0.00,          0,     0.00,    10.6299,     4.89,          0,     0.00,          0,     0.00,          0,     0.00,          0,     0.00,          0,     0.00
Line.LN6014135-1,    9.68809,   -55.71,          0,     0.00,          0,     0.00,          0,     0.00,    9.68809,   -55.71,     9.6881,   124.28,          0,     0.00,          0,     0.00,          0,     0.00,     9.6881,   124.28,          0,     0.00,          0,     0.00,          0,     0.00,          0,     0.00,          0,     0.00
Line.LN6077784-1,    57.9038,   -59.77,    69.7896,   177.97,    42.9259,    64.62,          0,     0.00,    23.8671,  -158.43,    57.9044,   120.23,    69.7901,    -2.03,    42.9262,  -115.38,          0,     0.00,    23.8671,    21.57,          0,     0.00,          0,     0.00,          0,     0.00,          0,     0.00,          0,     0.00
Line.LN5744338-1,     27.524,  -177.04,          0,     0.00,          0,     0.00,          0,     0.00,     27.524,  -177.04,    27.5242,     2.96,          0,     0.00,          0,     0.00,          0,     0.00,    27.5242,     2.96,          0,     0.00,          0,     0.00,          0,     0.00,          0,     0.00,          0,     0.00
Line.LN6991381-4,    5.11188,   -59.53,          0,     0.00,          0,     0.00,          0,     0.00,    5.11188,   -59.53,    5.11225,   120.46,          0,     0.00,          0,     0.00,          0,     0.00,    5.11225,   120.46,          0,     0.00,          0,     0.00,          0,     0.00,          0,     0.00,          0,     0.00
Line.LN5774480-1,    32.1346,   179.61,          0,     0.00,          0,     0.00,          0,     0.00,    32.1346,   179.61,    32.1353,    -0.39,          0,     0.00,          0,     0.00,          0,     0.00,    32.1353,    -0.39,          0,     0.00,          0,     0.00,          0,     0.00,          0,     0.00,          0,     0.00
Line.LN5986938-3,    5.44056,   -59.48,          0,     0.00,          0,     0.00,          0,     0.00,    5.44056,   -59.48,     5.4406,   120.52,          0,     0.00,          0,     0.00,          0,     0.00,     5.4406,   120.52,          0,     0.00,          0,     0.00,          0,     0.00,          0,     0.00,          0,     0.00
Line.LN5894230-1,    1.44861,    69.86,          0,     0.00,          0,     0.00,          0,     0.00,    1.44861,    69.86,    1.44918,  -110.22,          0,     0.00,          0,     0.00,          0,     0.00,    1.44918,  -110.22,          0,     0.00,          0,     0.00,          0,     0.00,          0,     0.00,          0,     0.00
Line.LN5683858-3,    2.60754,   -59.67,    4.19834,   178.66,    2.96019,    64.81,          0,     0.00,    1.70347,   162.00,    2.60767,   120.33,    4.19848,    -1.35,    2.96027,  -115.20,          0,     0.00,    1.70347,   -18.00,          0,     0.00,          0,     0.00,          0,     0.00,          0,     0.00,          0,     0.00
Line.LN5920279-5,    351.025,   -49.56,    328.521,  -171.36,    226.448,    79.10,          0,     0.00,    108.683,  -119.97,    351.025,   130.44,    328.521,     8.64,    226.448,  -100.90,          0,     0.00,    108.683,    60.03,          0,     0.00,          0,     0.00,          0,     0.00,          0,     0.00,          0,     0.00
Line.LN6439600-1,    1.30114,   -59.72,          0,     0.00,          0,     0.00,          0,     0.00,    1.30114,   -59.72,    1.30163,   120.20,          0,     0.00,          0,     0.00,          0,     0.00,    1.30163,   120.20,          0,     0.00,          0,     0.00,          0,     0.00,          0,     0.00,          0,     0.00
Line.LN5589097-1,    1.98482,   -53.83,          0,     0.00,          0,     0.00,          0,     0.00,    1.98482,   -53.83,    1.98494,   126.16,          0,     0.00,          0,     0.00,          0,     0.00,    1.98494,   126.16,          0,     0.00,          0,     0.00,          0,     0.00,          0,     0.00,          0,     0.00
Line.LN5651975-1,    61.6245,   -59.52,    14.9785,   178.94,    33.6802,    64.82,          0,     0.00,    37.9078,   -36.13,    61.6248,   120.48,    14.9788,    -1.06,    33.6804,  -115.19,          0,     0.00,    37.9078,   143.87,          0,     0.00,          0,     0.00,          0,     0.00,          0,     0.00,          0,     0.00
Line.LN5865236-1,     2.5416,   -59.09,          0,     0.00,          0,     0.00,          0,     0.00,     2.5416,   -59.09,    2.54165,   120.91,          0,     0.00,          0,     0.00,          0,     0.00,    2.54165,   120.91,          0,     0.00,          0,     0.00,          0,     0.00,          0,     0.00,          0,     0.00
Line.LN5593232-1,    1.44176,    65.52,          0,     0.00,          0,     0.00,          0,     0.00,    1.44176,    65.52,    1.44242,  -114.57,          0,     0.00,          0,     0.00,          0,     0.00,    1.44242,  -114.57,          0,     0.00,          0,     0.00,          0,     0.00,          0,     0.00,          0,     0.00
Line.LN5740283-1,     1.7168,    67.12,          0,     0.00,          0,     0.00,          0,     0.00,     1.7168,    67.12,    1.71683,  -112.88,          0,     0.00,          0,     0.00,          0,     0.00,    1.71683,  -112.88,          0,     0.00,          0,     0.00,          0,     0.00,          0,     0.00,          0,     0.00
Line.LN6106559-1,    3.96453,   179.65,          0,     0.00,          0,     0.00,          0,     0.00,    3.96453,   179.65,    3.96498,    -0.37,          0,     0.00,          0,     0.00,          0,     0.00,    3.96498,    -0.37,          0,     0.00,          0,     0.00,          0,     0.00,          0,     0.00,          0,     0.00
Line.LN5714056-3,    51.7839,   -59.56,    11.4926,   178.87,    25.7681,    64.79,          0,     0.00,    33.2723,   -39.37,    51.7849,   120.44,    11.4937,    -1.14,    25.7687,  -115.21,          0,     0.00,    33.2723,   140.63,          0,     0.00,          0,     0.00,          0,     0.00,          0,     0.00,          0,     0.00
Line.LN5985355-3,    56.0657,   179.65,          0,     0.00,          0,     0.00,          0,     0.00,    56.0657,   179.65,     56.066,    -0.35,          0,     0.00,          0,     0.00,          0,     0.00,     56.066,    -0.35,          0,     0.00,          0,     0.00,          0,     0.00,          0,     0.00,          0,     0.00
Line.LN5531956-1,    1.30172,   -58.14,          0,     0.00,          0,     0.00,          0,     0.00,    1.30172,   -58.14,    1.30203,   121.81,          0,     0.00,          0,     0.00,          0,     0.00,    1.30203,   121.81,          0,     0.00,          0,     0.00,          0,     0.00,          0,     0.00,          0,     0.00
Line.LN5650048-1,    1.42162,   179.60,          0,     0.00,          0,     0.00,          0,     0.00,    1.42162,   179.60,     1.4219,    -0.44,          0,     0.00,          0,     0.00,          0,     0.00,     1.4219,    -0.44,          0,     0.00,          0,     0.00,          0,     0.00,          0,     0.00,          0,     0.00
Line.LN6290203-1,    21.9295,   -59.11,    54.9163,   177.98,    39.8474,    63.94,          0,     0.00,    32.2434,   144.10,    21.9303,   120.89,    54.9171,    -2.02,    39.8479,  -116.06,          0,     0.00,    32.2433,   -35.90,          0,     0.00,          0,     0.00,          0,     0.00,          0,     0.00,          0,     0.00
Line.LN6134414-1,    2.85207,    65.64,          0,     0.00,          0,     0.00,          0,     0.00,    2.85207,    65.64,    2.85235,  -114.38,          0,     0.00,          0,     0.00,          0,     0.00,    2.85235,  -114.38,          0,     0.00,          0,     0.00,          0,     0.00,          0,     0.00,          0,     0.00
Line.LN6259998-2,    1.75292,    64.65,          0,     0.00,          0,     0.00,          0,     0.00,    1.75292,    64.65,    1.75298,  -115.36,          0,     0.00,          0,     0.00,          0,     0.00,    1.75298,  -115.36,          0,     0.00,          0,     0.00,          0,     0.00,          0,     0.00,          0,     0.00
Line.LN6078767-1,    107.209,   -31.01,    127.001,  -155.99,    155.932,    81.93,          0,     0.00,    47.5335,    92.71,    107.209,   148.99,    127.001,    24.01,    155.932,   -98.07,          0,     0.00,    47.5334,   -87.29,          0,     0.00,          0,     0.00,          0,     0.00,          0,     0.00,          0,     0.00
Line.LN6017300-1,   0.867565,    65.39,          0,     0.00,          0,     0.00,          0,     0.00,   0.867565,    65.39,   0.867965,  -114.71,          0,     0.00,          0,     0.00,          0,     0.00,   0.867965,  -114.71,          0,     0.00,          0,     0.00,          0,     0.00,          0,     0.00,          0,     0.00
Line.LN8979257-2,    1.37421,   -55.26,    1.45595,  -176.23,    1.44452,    66.95,          0,     0.00,   0.147392,   135.05,    1.37464,   124.67,    1.45639,     3.71,    1.44499,  -113.12,          0,     0.00,   0.147339,   -45.02,          0,     0.00,          0,     0.00,          0,     0.00,          0,     0.00,          0,     0.00
Line.LN81048109-1,    4.43623,  -176.31,          0,     0.00,          0,     0.00,          0,     0.00,    4.43623,  -176.31,    4.43812,     3.60,          0,     0.00,          0,     0.00,          0,     0.00,    4.43812,     3.60,          0,     0.00,          0,     0.00,          0,     0.00,          0,     0.00,          0,     0.00
Line.293471,    1.29216,   -55.72,     1.4459,  -176.86,     1.4436,    64.94,          0,     0.00,   0.191779,   122.99,    1.29238,   124.25,    1.44615,     3.11,    1.44376,  -115.09,          0,     0.00,   0.191751,   -57.01,          0,     0.00,          0,     0.00,          0,     0.00,          0,     0.00,          0,     0.00
Line.LN5534965-2,    1.27722,   -59.41,          0,     0.00,          0,     0.00,          0,     0.00,    1.27722,   -59.41,    1.27725,   120.59,          0,     0.00,          0,     0.00,          0,     0.00,    1.27725,   120.59,          0,     0.00,          0,     0.00,          0,     0.00,          0,     0.00,          0,     0.00
Line.LN5655683-1,    20.4478,   -59.63,          0,     0.00,          0,     0.00,          0,     0.00,    20.4478,   -59.63,    20.4479,   120.37,          0,     0.00,          0,     0.00,          0,     0.00,    20.4479,   120.37,          0,     0.00,          0,     0.00,          0,     0.00,          0,     0.00,          0,     0.00
Line.LN5686247-1,    2.00746,  -174.34,          0,     0.00,          0,     0.00,          0,     0.00,    2.00746,  -174.34,    2.00749,     5.65,          0,     0.00,          0,     0.00,          0,     0.00,    2.00749,     5.65,          0,     0.00,          0,     0.00,          0,     0.00,          0,     0.00,          0,     0.00
Line.LN6048642-1, 0.00189263,   -69.43,          0,     0.00,          0,     0.00,          0,     0.00, 0.00189263,   -69.43, 1.81899E-012,   -90.00,          0,     0.00,          0,     0.00,          0,     0.00, 1.81899E-012,   -90.00,          0,     0.00,          0,     0.00,          0,     0.00,          0,     0.00,          0,     0.00
Line.LN5928544-3,    14.7069,    64.27,          0,     0.00,          0,     0.00,          0,     0.00,    14.7069,    64.27,    14.7072,  -115.73,          0,     0.00,          0,     0.00,          0,     0.00,    14.7072,  -115.73,          0,     0.00,          0,     0.00,          0,     0.00,          0,     0.00,          0,     0.00
Line.LN6108172-1,    2.59142,   -59.61,          0,     0.00,          0,     0.00,          0,     0.00,    2.59142,   -59.61,    2.59237,   120.31,          0,     0.00,          0,     0.00,          0,     0.00,    2.59237,   120.31,          0,     0.00,          0,     0.00,          0,     0.00,          0,     0.00,          0,     0.00
Line.LN5532754-1,    56.9109,   -59.53,    14.9829,   178.89,    28.1161,    64.83,          0,     0.00,    34.7988,   -42.07,     56.911,   120.47,     14.983,    -1.12,    28.1162,  -115.17,          0,     0.00,    34.7988,   137.93,          0,     0.00,          0,     0.00,          0,     0.00,          0,     0.00,          0,     0.00
Line.LN5591834-1,     3.7337,    67.45,          0,     0.00,          0,     0.00,          0,     0.00,     3.7337,    67.45,    3.73403,  -112.57,          0,     0.00,          0,     0.00,          0,     0.00,    3.73403,  -112.57,          0,     0.00,          0,     0.00,          0,     0.00,          0,     0.00,          0,     0.00
Line.LN6347196-2,     27.981,   -59.53,    10.6655,   178.85,    25.7695,    64.78,          0,     0.00,    14.5179,    -2.33,    27.9812,   120.47,    10.6658,    -1.15,    25.7696,  -115.23,          0,     0.00,    14.5179,   177.67,          0,     0.00,          0,     0.00,          0,     0.00,          0,     0.00,          0,     0.00
Line.LN5532741-1,    9.02899,    66.38,          0,     0.00,          0,     0.00,          0,     0.00,    9.02899,    66.38,    9.02926,  -113.62,          0,     0.00,          0,     0.00,          0,     0.00,    9.02926,  -113.62,          0,     0.00,          0,     0.00,          0,     0.00,          0,     0.00,          0,     0.00
Line.LN5804803-1,   0.782599,   -55.37,          0,     0.00,          0,     0.00,          0,     0.00,   0.782599,   -55.37,   0.783925,   124.26,          0,     0.00,          0,     0.00,          0,     0.00,   0.783925,   124.26,          0,     0.00,          0,     0.00,          0,     0.00,          0,     0.00,          0,     0.00
Line.LN6169248-1,    111.491,   -59.74,    74.6255,   178.01,    45.8197,    64.66,          0,     0.00,    52.3127,   -88.67,    111.492,   120.26,    74.6264,    -1.99,    45.8201,  -115.35,          0,     0.00,    52.3127,    91.33,          0,     0.00,          0,     0.00,          0,     0.00,          0,     0.00,          0,     0.00
Line.LN5532786-2,    2.25839,   178.21,          0,     0.00,          0,     0.00,          0,     0.00,    2.25839,   178.21,    2.25847,    -1.80,          0,     0.00,          0,     0.00,          0,     0.00,    2.25847,    -1.80,          0,     0.00,          0,     0.00,          0,     0.00,          0,     0.00,          0,     0.00
Line.LN5744339-1,    16.5971,   -55.69,          0,     0.00,          0,     0.00,          0,     0.00,    16.5971,   -55.69,    16.5974,   124.31,          0,     0.00,          0,     0.00,          0,     0.00,    16.5974,   124.31,          0,     0.00,          0,     0.00,          0,     0.00,          0,     0.00,          0,     0.00
Line.LN5531255-3,    16.9505,   -59.84,          0,     0.00,          0,     0.00,          0,     0.00,    16.9505,   -59.84,    16.9508,   120.16,          0,     0.00,          0,     0.00,          0,     0.00,    16.9508,   120.16,          0,     0.00,          0,     0.00,          0,     0.00,          0,     0.00,          0,     0.00
Line.LN5926308-2,    40.5132,   -55.62,     49.511,  -176.90,    19.2201,    65.12,          0,     0.00,    26.2687,  -134.69,    40.5135,   124.38,    49.5113,     3.10,    19.2202,  -114.89,          0,     0.00,    26.2688,    45.31,          0,     0.00,          0,     0.00,          0,     0.00,          0,     0.00,          0,     0.00
Line.LN5683856-3,    1.27673,   -59.47,          0,     0.00,          0,     0.00,          0,     0.00,    1.27673,   -59.47,    1.27685,   120.51,          0,     0.00,          0,     0.00,          0,     0.00,    1.27685,   120.51,          0,     0.00,          0,     0.00,          0,     0.00,          0,     0.00,          0,     0.00
Line.LN6171502-1,    2.03906,   -59.37,          0,     0.00,          0,     0.00,          0,     0.00,    2.03906,   -59.37,    2.03909,   120.62,          0,     0.00,          0,     0.00,          0,     0.00,    2.03909,   120.62,          0,     0.00,          0,     0.00,          0,     0.00,          0,     0.00,          0,     0.00
Line.LN5593228-1,    1.41566,   177.75,          0,     0.00,          0,     0.00,          0,     0.00,    1.41566,   177.75,    1.41594,    -2.29,          0,     0.00,          0,     0.00,          0,     0.00,    1.41594,    -2.29,          0,     0.00,          0,     0.00,          0,     0.00,          0,     0.00,          0,     0.00
Line.LN6380800-1,    1.42186,   177.69,          0,     0.00,          0,     0.00,          0,     0.00,    1.42186,   177.69,    1.42213,    -2.35,          0,     0.00,          0,     0.00,          0,     0.00,    1.42213,    -2.35,          0,     0.00,          0,     0.00,          0,     0.00,          0,     0.00,          0,     0.00
Line.LN6199525-2,   0.520387,   -55.63,          0,     0.00,          0,     0.00,          0,     0.00,   0.520387,   -55.63,   0.520701,   124.24,          0,     0.00,          0,     0.00,          0,     0.00,   0.520701,   124.24,          0,     0.00,          0,     0.00,          0,     0.00,          0,     0.00,          0,     0.00
Line.LN5772710-2,    10.2034,   -59.76,          0,     0.00,          0,     0.00,          0,     0.00,    10.2034,   -59.76,    10.2038,   120.23,          0,     0.00,          0,     0.00,          0,     0.00,    10.2038,   120.23,          0,     0.00,          0,     0.00,          0,     0.00,          0,     0.00,          0,     0.00
Line.LN8961760-1,    5.07376,    64.85,          0,     0.00,          0,     0.00,          0,     0.00,    5.07376,    64.85,    5.07386,  -115.16,          0,     0.00,          0,     0.00,          0,     0.00,    5.07386,  -115.16,          0,     0.00,          0,     0.00,          0,     0.00,          0,     0.00,          0,     0.00
Line.LN6047556-1,     1.4269,    65.60,          0,     0.00,          0,     0.00,          0,     0.00,     1.4269,    65.60,    1.42744,  -114.48,          0,     0.00,          0,     0.00,          0,     0.00,    1.42744,  -114.48,          0,     0.00,          0,     0.00,          0,     0.00,          0,     0.00,          0,     0.00
Line.LN6138603-1,    2.24689,   177.96,          0,     0.00,          0,     0.00,          0,     0.00,    2.24689,   177.96,    2.24747,    -2.09,          0,     0.00,          0,     0.00,          0,     0.00,    2.24747,    -2.09,          0,     0.00,          0,     0.00,          0,     0.00,          0,     0.00,          0,     0.00
Line.LN6108139-1,   0.864704,   177.76,          0,     0.00,          0,     0.00,          0,     0.00,   0.864704,   177.76,   0.864787,    -2.26,          0,     0.00,          0,     0.00,          0,     0.00,   0.864787,    -2.26,          0,     0.00,          0,     0.00,          0,     0.00,          0,     0.00,          0,     0.00
Line.LN6388581-2,   0.781365,   -59.32,          0,     0.00,          0,     0.00,          0,     0.00,   0.781365,   -59.32,   0.781606,   120.61,          0,     0.00,          0,     0.00,          0,     0.00,   0.781606,   120.61,          0,     0.00,          0,     0.00,          0,     0.00,          0,     0.00,          0,     0.00
Line.LN5774460-1,   0.779087,   -59.72,          0,     0.00,          0,     0.00,          0,     0.00,   0.779087,   -59.72,   0.779359,   120.21,          0,     0.00,          0,     0.00,          0,     0.00,   0.779359,   120.21,          0,     0.00,          0,     0.00,          0,     0.00,          0,     0.00,          0,     0.00
Line.LN5624387-1,    2.19936,    66.45,          0,     0.00,          0,     0.00,          0,     0.00,    2.19936,    66.45,    2.19961,  -113.57,          0,     0.00,          0,     0.00,          0,     0.00,    2.19961,  -113.57,          0,     0.00,          0,     0.00,          0,     0.00,          0,     0.00,          0,     0.00
Line.LN6137087-1,    11.6044,    65.44,          0,     0.00,          0,     0.00,          0,     0.00,    11.6044,    65.44,    11.6046,  -114.57,          0,     0.00,          0,     0.00,          0,     0.00,    11.6046,  -114.57,          0,     0.00,          0,     0.00,          0,     0.00,          0,     0.00,          0,     0.00
Line.LN6077809-1,    14.7842,    64.34,          0,     0.00,          0,     0.00,          0,     0.00,    14.7842,    64.34,    14.7847,  -115.67,          0,     0.00,          0,     0.00,          0,     0.00,    14.7847,  -115.67,          0,     0.00,          0,     0.00,          0,     0.00,          0,     0.00,          0,     0.00
Line.LN6440079-1,    3.73403,    67.43,          0,     0.00,          0,     0.00,          0,     0.00,    3.73403,    67.43,    3.73427,  -112.58,          0,     0.00,          0,     0.00,          0,     0.00,    3.73427,  -112.58,          0,     0.00,          0,     0.00,          0,     0.00,          0,     0.00,          0,     0.00
Line.LN5804794-1,    11.5655,   -55.37,          0,     0.00,          0,     0.00,          0,     0.00,    11.5655,   -55.37,    11.5658,   124.62,          0,     0.00,          0,     0.00,          0,     0.00,    11.5658,   124.62,          0,     0.00,          0,     0.00,          0,     0.00,          0,     0.00,          0,     0.00
Line.LN5654484-1,    1.44082,    66.64,          0,     0.00,          0,     0.00,          0,     0.00,    1.44082,    66.64,    1.44094,  -113.38,          0,     0.00,          0,     0.00,          0,     0.00,    1.44094,  -113.38,          0,     0.00,          0,     0.00,          0,     0.00,          0,     0.00,          0,     0.00
Line.LN5774465-1,    2.59888,   -59.30,          0,     0.00,          0,     0.00,          0,     0.00,    2.59888,   -59.30,    2.59943,   120.66,          0,     0.00,          0,     0.00,          0,     0.00,    2.59943,   120.66,          0,     0.00,          0,     0.00,          0,     0.00,          0,     0.00,          0,     0.00
Line.LN5473349-1,    300.651,   -49.15,    305.764,  -171.29,    212.076,    79.89,          0,     0.00,    94.2964,  -136.49,    300.651,   130.85,    305.764,     8.71,    212.076,  -100.11,          0,     0.00,    94.2964,    43.51,          0,     0.00,          0,     0.00,          0,     0.00,          0,     0.00,          0,     0.00
Line.LN6169253-1,    1.29421,   -59.66,          0,     0.00,          0,     0.00,          0,     0.00,    1.29421,   -59.66,    1.29447,   120.30,          0,     0.00,          0,     0.00,          0,     0.00,    1.29447,   120.30,          0,     0.00,          0,     0.00,          0,     0.00,          0,     0.00,          0,     0.00
Line.LN6350536-1,   0.775258,   -59.80,          0,     0.00,          0,     0.00,          0,     0.00,   0.775258,   -59.80,   0.776017,   119.99,          0,     0.00,          0,     0.00,          0,     0.00,   0.776017,   119.99,          0,     0.00,          0,     0.00,          0,     0.00,          0,     0.00,          0,     0.00
Line.LN6048523-1,    20.9392,    69.85,          0,     0.00,          0,     0.00,          0,     0.00,    20.9392,    69.85,    20.9397,  -110.15,          0,     0.00,          0,     0.00,          0,     0.00,    20.9397,  -110.15,          0,     0.00,          0,     0.00,          0,     0.00,          0,     0.00,          0,     0.00
Line.LN5594152-1,    23.2498,    69.90,          0,     0.00,          0,     0.00,          0,     0.00,    23.2498,    69.90,    23.2504,  -110.11,          0,     0.00,          0,     0.00,          0,     0.00,    23.2504,  -110.11,          0,     0.00,          0,     0.00,          0,     0.00,          0,     0.00,          0,     0.00
Line.LN5865248-1,    47.4542,   -55.63,    51.6582,  -176.89,    19.2185,    65.14,          0,     0.00,    29.6861,  -124.26,    47.4546,   124.37,    51.6585,     3.11,    19.2188,  -114.86,          0,     0.00,    29.6862,    55.74,          0,     0.00,          0,     0.00,          0,     0.00,          0,     0.00,          0,     0.00
Line.LN6046143-1,   0.561395,   179.78,          0,     0.00,          0,     0.00,          0,     0.00,   0.561395,   179.78,   0.561792,    -0.37,          0,     0.00,          0,     0.00,          0,     0.00,   0.561792,    -0.37,          0,     0.00,          0,     0.00,          0,     0.00,          0,     0.00,          0,     0.00
Line.LN5803287-1,    2.93396,    66.48,          0,     0.00,          0,     0.00,          0,     0.00,    2.93396,    66.48,    2.93406,  -113.53,          0,     0.00,          0,     0.00,          0,     0.00,    2.93406,  -113.53,          0,     0.00,          0,     0.00,          0,     0.00,          0,     0.00,          0,     0.00
Line.LN5589094-1,    31.8951,    69.94,          0,     0.00,          0,     0.00,          0,     0.00,    31.8951,    69.94,    31.8954,  -110.06,          0,     0.00,          0,     0.00,          0,     0.00,    31.8954,  -110.06,          0,     0.00,          0,     0.00,          0,     0.00,          0,     0.00,          0,     0.00
Line.LN5954983-1,    16.9508,   -59.84,          0,     0.00,          0,     0.00,          0,     0.00,    16.9508,   -59.84,    16.9512,   120.15,          0,     0.00,          0,     0.00,          0,     0.00,    16.9512,   120.15,          0,     0.00,          0,     0.00,          0,     0.00,          0,     0.00,          0,     0.00
Line.LN5924696-2,   0.755426,   -59.23,          0,     0.00,          0,     0.00,          0,     0.00,   0.755426,   -59.23,   0.755625,   120.72,          0,     0.00,          0,     0.00,          0,     0.00,   0.755625,   120.72,          0,     0.00,          0,     0.00,          0,     0.00,          0,     0.00,          0,     0.00
Line.LN6506311-4, 4.8573E-005,    51.17, 5.18711E-005,   -68.28,   0.861436,    66.83,          0,     0.00,   0.861446,    66.82, 3.84182E-010,   142.70, 1.79997E-010,   -75.96,   0.861446,  -113.18,          0,     0.00,   0.861446,  -113.18,          0,     0.00,          0,     0.00,          0,     0.00,          0,     0.00,          0,     0.00
Line.LN5653493-1,    17.1731,   177.85,          0,     0.00,          0,     0.00,          0,     0.00,    17.1731,   177.85,    17.1733,    -2.16,          0,     0.00,          0,     0.00,          0,     0.00,    17.1733,    -2.16,          0,     0.00,          0,     0.00,          0,     0.00,          0,     0.00,          0,     0.00
Line.LN5684836-1,    330.715,   -49.15,    324.873,  -171.29,     225.33,    79.15,          0,     0.00,    99.9361,  -128.66,    330.715,   130.85,    324.873,     8.71,     225.33,  -100.85,          0,     0.00,    99.9361,    51.34,          0,     0.00,          0,     0.00,          0,     0.00,          0,     0.00,          0,     0.00
Line.LN5715016-3,   0.780181,   -53.87,          0,     0.00,          0,     0.00,          0,     0.00,   0.780181,   -53.87,   0.780516,   126.04,          0,     0.00,          0,     0.00,          0,     0.00,   0.780516,   126.04,          0,     0.00,          0,     0.00,          0,     0.00,          0,     0.00,          0,     0.00
Line.LN6138614-1,    56.5936,    -9.46,    57.3285,  -132.02,    43.4509,   138.20,          0,     0.00,    27.3714,  -123.10,    56.5926,   170.54,    57.3276,    47.97,    43.4492,   -41.80,          0,     0.00,    27.3714,    56.90,          0,     0.00,          0,     0.00,          0,     0.00,          0,     0.00,          0,     0.00
Line.LN6077781-2,    260.903,   -59.50,    239.886,   178.15,    197.244,    64.55,          0,     0.00,    45.0307,  -120.07,    260.904,   120.50,    239.887,    -1.85,    197.245,  -115.45,          0,     0.00,    45.0307,    59.93,          0,     0.00,          0,     0.00,          0,     0.00,          0,     0.00,          0,     0.00
Line.LN5675121-1,    0.56823,    66.06,          0,     0.00,          0,     0.00,          0,     0.00,    0.56823,    66.06,   0.568662,  -114.11,          0,     0.00,          0,     0.00,          0,     0.00,   0.568662,  -114.11,          0,     0.00,          0,     0.00,          0,     0.00,          0,     0.00,          0,     0.00
Line.LN5773046-1,    34.9801,   179.62,          0,     0.00,          0,     0.00,          0,     0.00,    34.9801,   179.62,    34.9805,    -0.38,          0,     0.00,          0,     0.00,          0,     0.00,    34.9805,    -0.38,          0,     0.00,          0,     0.00,          0,     0.00,          0,     0.00,          0,     0.00
Line.LN6380809-2,    23.0666,   -59.09,    71.7543,   178.10,    8.10187,    64.83,          0,     0.00,    57.3121,  -169.87,    23.0666,   120.91,    71.7544,    -1.90,    8.10192,  -115.17,          0,     0.00,    57.3121,    10.13,          0,     0.00,          0,     0.00,          0,     0.00,          0,     0.00,          0,     0.00
Line.LN6018326-1,    1.71241,    68.71,          0,     0.00,          0,     0.00,          0,     0.00,    1.71241,    68.71,    1.71269,  -111.33,          0,     0.00,          0,     0.00,          0,     0.00,    1.71269,  -111.33,          0,     0.00,          0,     0.00,          0,     0.00,          0,     0.00,          0,     0.00
Line.LN5472356-1,   0.572132,   177.94,          0,     0.00,          0,     0.00,          0,     0.00,   0.572132,   177.94,   0.572418,    -2.17,          0,     0.00,          0,     0.00,          0,     0.00,   0.572418,    -2.17,          0,     0.00,          0,     0.00,          0,     0.00,          0,     0.00,          0,     0.00
Line.LN6139641-1,     400.05,   -50.27,     385.73,  -172.10,    267.305,    77.23,          0,     0.00,    120.519,  -123.93,     400.05,   129.73,     385.73,     7.90,    267.305,  -102.77,          0,     0.00,    120.519,    56.07,          0,     0.00,          0,     0.00,          0,     0.00,          0,     0.00,          0,     0.00
Line.LN6018341-1,    101.346,   -29.63,    115.797,  -154.18,    151.022,    82.42,          0,     0.00,    49.3142,    85.62,    101.346,   150.37,    115.797,    25.82,    151.021,   -97.58,          0,     0.00,    49.3141,   -94.38,          0,     0.00,          0,     0.00,          0,     0.00,          0,     0.00,          0,     0.00
Line.LN6017302-1,    2.07835,   -55.45,    39.7454,  -176.98,    0.86225,    65.39,          0,     0.00,    38.2717,  -175.48,    2.07872,   124.52,    39.7458,     3.01,   0.862529,  -114.71,          0,     0.00,    38.2717,     4.52,          0,     0.00,          0,     0.00,          0,     0.00,          0,     0.00,          0,     0.00
Line.LN6199505-1,   0.561824,   177.81,          0,     0.00,          0,     0.00,          0,     0.00,   0.561824,   177.81,   0.561985,    -2.25,          0,     0.00,          0,     0.00,          0,     0.00,   0.561985,    -2.25,          0,     0.00,          0,     0.00,          0,     0.00,          0,     0.00,          0,     0.00
Line.LN5682327-1,    19.2533,   -59.73,          0,     0.00,          0,     0.00,          0,     0.00,    19.2533,   -59.73,    19.2533,   120.27,          0,     0.00,          0,     0.00,          0,     0.00,    19.2533,   120.27,          0,     0.00,          0,     0.00,          0,     0.00,          0,     0.00,          0,     0.00
Line.LN6290243-1,    2.90856,  -176.85,          0,     0.00,          0,     0.00,          0,     0.00,    2.90856,  -176.85,    2.90886,     3.12,          0,     0.00,          0,     0.00,          0,     0.00,    2.90886,     3.12,          0,     0.00,          0,     0.00,          0,     0.00,          0,     0.00,          0,     0.00
Line.X8223_48332_SW,    78.9511,   -24.38,    84.4185,  -148.11,    45.9115,   130.09,          0,     0.00,    51.2756,  -124.90,    78.9511,   155.62,    84.4185,    31.89,    45.9115,   -49.91,          0,     0.00,    51.2756,    55.10,          0,     0.00,          0,     0.00,          0,     0.00,          0,     0.00,          0,     0.00
Line.LN6413567-3,    78.9512,   -24.38,    84.4186,  -148.11,    45.9118,   130.09,          0,     0.00,    51.2756,  -124.90,    78.9511,   155.62,    84.4185,    31.89,    45.9115,   -49.91,          0,     0.00,    51.2756,    55.10,          0,     0.00,          0,     0.00,          0,     0.00,          0,     0.00,          0,     0.00
Line.LN5591731-3,    355.098,   -49.64,     328.52,  -171.36,    227.861,    79.02,          0,     0.00,    109.088,  -118.11,    355.098,   130.36,     328.52,     8.64,    227.861,  -100.98,          0,     0.00,    109.088,    61.89,          0,     0.00,          0,     0.00,          0,     0.00,          0,     0.00,          0,     0.00
Line.LN5653470-1,    1.28531,   -59.55,    1.38747,   178.70,    1.47347,    64.73,          0,     0.00,   0.277278,   112.63,    1.28572,   120.40,     1.3879,    -1.35,    1.47371,  -115.32,          0,     0.00,   0.277276,   -67.38,          0,     0.00,          0,     0.00,          0,     0.00,          0,     0.00,          0,     0.00
Line.LN6017316-1,      34.63,   177.82,          0,     0.00,          0,     0.00,          0,     0.00,      34.63,   177.82,    34.6305,    -2.18,          0,     0.00,          0,     0.00,          0,     0.00,    34.6305,    -2.18,          0,     0.00,          0,     0.00,          0,     0.00,          0,     0.00,          0,     0.00
Line.LN5926299-1,    2.86958,   177.99,          0,     0.00,          0,     0.00,          0,     0.00,    2.86958,   177.99,    2.86985,    -2.03,          0,     0.00,          0,     0.00,          0,     0.00,    2.86985,    -2.03,          0,     0.00,          0,     0.00,          0,     0.00,          0,     0.00,          0,     0.00
Line.LN5683831-1,    47.4534,   -55.62,    51.6573,  -176.88,    23.5629,    65.09,          0,     0.00,    25.4047,  -125.80,    47.4539,   124.37,    51.6578,     3.11,    23.5632,  -114.92,          0,     0.00,    25.4048,    54.20,          0,     0.00,          0,     0.00,          0,     0.00,          0,     0.00,          0,     0.00
Line.LN6352700-1,    5.31815,   -54.51,          0,     0.00,          0,     0.00,          0,     0.00,    5.31815,   -54.51,    5.31816,   125.49,          0,     0.00,          0,     0.00,          0,     0.00,    5.31816,   125.49,          0,     0.00,          0,     0.00,          0,     0.00,          0,     0.00,          0,     0.00
Line.LN6047570-1,   0.748592,   -55.00,          0,     0.00,          0,     0.00,          0,     0.00,   0.748592,   -55.00,   0.748801,   124.94,          0,     0.00,          0,     0.00,          0,     0.00,   0.748801,   124.94,          0,     0.00,          0,     0.00,          0,     0.00,          0,     0.00,          0,     0.00
Line.LN5624342-1,    332.081,   -49.18,    328.524,  -171.37,    225.331,    79.16,          0,     0.00,    102.772,  -129.48,    332.082,   130.82,    328.524,     8.63,     225.33,  -100.84,          0,     0.00,    102.772,    50.52,          0,     0.00,          0,     0.00,          0,     0.00,          0,     0.00,          0,     0.00
Line.LN6259992-1,    1.34307,   -54.71,          0,     0.00,          0,     0.00,          0,     0.00,    1.34307,   -54.71,    1.34328,   125.25,          0,     0.00,          0,     0.00,          0,     0.00,    1.34328,   125.25,          0,     0.00,          0,     0.00,          0,     0.00,          0,     0.00,          0,     0.00
Line.LN5841919-1,   0.866475,   177.80,          0,     0.00,          0,     0.00,          0,     0.00,   0.866475,   177.80,   0.866887,    -2.31,          0,     0.00,          0,     0.00,          0,     0.00,   0.866887,    -2.31,          0,     0.00,          0,     0.00,          0,     0.00,          0,     0.00,          0,     0.00
Line.LN6380811-1,    16.4678,   177.96,          0,     0.00,          0,     0.00,          0,     0.00,    16.4678,   177.96,    16.4685,    -2.04,          0,     0.00,          0,     0.00,          0,     0.00,    16.4685,    -2.04,          0,     0.00,          0,     0.00,          0,     0.00,          0,     0.00,          0,     0.00
Line.LN5683832-1,    1.28618,   -55.78,          0,     0.00,          0,     0.00,          0,     0.00,    1.28618,   -55.78,    1.28652,   124.16,          0,     0.00,          0,     0.00,          0,     0.00,    1.28652,   124.16,          0,     0.00,          0,     0.00,          0,     0.00,          0,     0.00,          0,     0.00
Line.LN6077778-1,    1.26439,   -55.30,          0,     0.00,          0,     0.00,          0,     0.00,    1.26439,   -55.30,    1.26477,   124.64,          0,     0.00,          0,     0.00,          0,     0.00,    1.26477,   124.64,          0,     0.00,          0,     0.00,          0,     0.00,          0,     0.00,          0,     0.00
Line.LN5561442-2,    398.067,   -50.25,    385.735,  -172.10,     262.21,    77.42,          0,     0.00,    124.904,  -124.32,    398.068,   129.75,    385.735,     7.90,     262.21,  -102.58,          0,     0.00,    124.904,    55.68,          0,     0.00,          0,     0.00,          0,     0.00,          0,     0.00,          0,     0.00
Line.LN6259983-1,    1.43926,   178.00,          0,     0.00,          0,     0.00,          0,     0.00,    1.43926,   178.00,       1.44,    -2.11,          0,     0.00,          0,     0.00,          0,     0.00,       1.44,    -2.11,          0,     0.00,          0,     0.00,          0,     0.00,          0,     0.00,          0,     0.00
Line.LN5865244-1,    16.0323,   -59.63,          0,     0.00,          0,     0.00,          0,     0.00,    16.0323,   -59.63,    16.0325,   120.37,          0,     0.00,          0,     0.00,          0,     0.00,    16.0325,   120.37,          0,     0.00,          0,     0.00,          0,     0.00,          0,     0.00,          0,     0.00
Line.LN6350555-1,   0.851389,   179.58,          0,     0.00,          0,     0.00,          0,     0.00,   0.851389,   179.58,   0.851669,    -0.49,          0,     0.00,          0,     0.00,          0,     0.00,   0.851669,    -0.49,          0,     0.00,          0,     0.00,          0,     0.00,          0,     0.00,          0,     0.00
Line.LN5714039-1,    5.61852,   -59.79,          0,     0.00,          0,     0.00,          0,     0.00,    5.61852,   -59.79,    5.61874,   120.20,          0,     0.00,          0,     0.00,          0,     0.00,    5.61874,   120.20,          0,     0.00,          0,     0.00,          0,     0.00,          0,     0.00,          0,     0.00
Line.LN5889821-1,    348.307,   -49.51,    328.522,  -171.36,     225.89,    79.13,          0,     0.00,    108.079,  -121.24,    348.307,   130.48,    328.523,     8.64,     225.89,  -100.87,          0,     0.00,    108.079,    58.76,          0,     0.00,          0,     0.00,          0,     0.00,          0,     0.00,          0,     0.00
Line.LN5804791-1,    63.4986,   -15.58,     84.418,  -148.12,    45.9094,   130.08,          0,     0.00,    48.0603,  -146.50,    63.4979,   164.41,    84.4177,    31.88,    45.9078,   -49.92,          0,     0.00,    48.0603,    33.50,          0,     0.00,          0,     0.00,          0,     0.00,          0,     0.00,          0,     0.00
Line.LN5653486-1,    4.38699,    64.50,          0,     0.00,          0,     0.00,          0,     0.00,    4.38699,    64.50,    4.38737,  -115.52,          0,     0.00,          0,     0.00,          0,     0.00,    4.38737,  -115.52,          0,     0.00,          0,     0.00,          0,     0.00,          0,     0.00,          0,     0.00
Line.LN5926286-1,    4.34054,   -59.78,          0,     0.00,          0,     0.00,          0,     0.00,    4.34054,   -59.78,    4.34084,   120.20,          0,     0.00,          0,     0.00,          0,     0.00,    4.34084,   120.20,          0,     0.00,          0,     0.00,          0,     0.00,          0,     0.00,          0,     0.00
Line.LN6318859-1, 0.000972152,    49.22,          0,     0.00,          0,     0.00,          0,     0.00, 0.000972152,    49.22, 7.27596E-012,    90.00,          0,     0.00,          0,     0.00,          0,     0.00, 7.27596E-012,    90.00,          0,     0.00,          0,     0.00,          0,     0.00,          0,     0.00,          0,     0.00
Line.LN5926316-1,    11.6042,  -176.80,          0,     0.00,          0,     0.00,          0,     0.00,    11.6042,  -176.80,    11.6042,     3.20,          0,     0.00,          0,     0.00,          0,     0.00,    11.6042,     3.20,          0,     0.00,          0,     0.00,          0,     0.00,          0,     0.00,          0,     0.00
Line.LN5591703-1,    2.54798,   179.65,          0,     0.00,          0,     0.00,          0,     0.00,    2.54798,   179.65,    2.54826,    -0.37,          0,     0.00,          0,     0.00,          0,     0.00,    2.54826,    -0.37,          0,     0.00,          0,     0.00,          0,     0.00,          0,     0.00,          0,     0.00
Line.LN5531333-1,    5.55939,   -56.35,          0,     0.00,          0,     0.00,          0,     0.00,    5.55939,   -56.35,    5.55954,   123.65,          0,     0.00,          0,     0.00,          0,     0.00,    5.55954,   123.65,          0,     0.00,          0,     0.00,          0,     0.00,          0,     0.00,          0,     0.00
Line.LN6047581-1,   0.869827,  -176.93,          0,     0.00,          0,     0.00,          0,     0.00,   0.869827,  -176.93,   0.869959,     3.04,          0,     0.00,          0,     0.00,          0,     0.00,   0.869959,     3.04,          0,     0.00,          0,     0.00,          0,     0.00,          0,     0.00,          0,     0.00
Line.LN6349077-1, 0.000677629,   -76.42,          0,     0.00,          0,     0.00,          0,     0.00, 0.000677629,   -76.42, 2.05795E-011,   135.00,          0,     0.00,          0,     0.00,          0,     0.00, 2.05795E-011,   135.00,          0,     0.00,          0,     0.00,          0,     0.00,          0,     0.00,          0,     0.00
Line.LN6350574-1,     9.5729,   -55.28,    9.68794,  -176.41,    8.66954,    66.90,          0,     0.00,   0.956895,  -148.46,    9.57343,   124.71,     9.6886,     3.58,    8.66993,  -113.11,          0,     0.00,   0.956818,    31.55,          0,     0.00,          0,     0.00,          0,     0.00,          0,     0.00,          0,     0.00
Line.LN6320343-1,      17.22,   -59.73,          0,     0.00,          0,     0.00,          0,     0.00,      17.22,   -59.73,    17.2204,   120.26,          0,     0.00,          0,     0.00,          0,     0.00,    17.2204,   120.26,          0,     0.00,          0,     0.00,          0,     0.00,          0,     0.00,          0,     0.00
Line.LN81048100-5,    27.5605,  -176.52,          0,     0.00,          0,     0.00,          0,     0.00,    27.5605,  -176.52,    27.5615,     3.47,          0,     0.00,          0,     0.00,          0,     0.00,    27.5615,     3.47,          0,     0.00,          0,     0.00,          0,     0.00,          0,     0.00,          0,     0.00
Line.LN6348946-1,    1.39831,   179.84,          0,     0.00,          0,     0.00,          0,     0.00,    1.39831,   179.84,    1.39834,    -0.17,          0,     0.00,          0,     0.00,          0,     0.00,    1.39834,    -0.17,          0,     0.00,          0,     0.00,          0,     0.00,          0,     0.00,          0,     0.00
Line.LN5744351-1,     1.4328,    65.20,          0,     0.00,          0,     0.00,          0,     0.00,     1.4328,    65.20,    1.43314,  -114.85,          0,     0.00,          0,     0.00,          0,     0.00,    1.43314,  -114.85,          0,     0.00,          0,     0.00,          0,     0.00,          0,     0.00,          0,     0.00
Line.LN5472342-1,   0.768073,   -59.85,          0,     0.00,          0,     0.00,          0,     0.00,   0.768073,   -59.85,   0.768336,   120.08,          0,     0.00,          0,     0.00,          0,     0.00,   0.768336,   120.08,          0,     0.00,          0,     0.00,          0,     0.00,          0,     0.00,          0,     0.00
Line.LN5621849-1,    3.71014,    65.25,          0,     0.00,          0,     0.00,          0,     0.00,    3.71014,    65.25,    3.71016,  -114.76,          0,     0.00,          0,     0.00,          0,     0.00,    3.71016,  -114.76,          0,     0.00,          0,     0.00,          0,     0.00,          0,     0.00,          0,     0.00
Line.LN6379375-1,   0.781378,   -60.05,          0,     0.00,          0,     0.00,          0,     0.00,   0.781378,   -60.05,   0.781626,   119.88,          0,     0.00,          0,     0.00,          0,     0.00,   0.781626,   119.88,          0,     0.00,          0,     0.00,          0,     0.00,          0,     0.00,          0,     0.00
Line.LN6028890-1,    2.01133,   -54.65,    3.00176,  -175.27,    2.21473,    65.99,          0,     0.00,   0.936609,   171.71,     2.0116,   125.32,    3.00206,     4.71,    2.21493,  -114.03,          0,     0.00,   0.936588,    -8.29,          0,     0.00,          0,     0.00,          0,     0.00,          0,     0.00,          0,     0.00
Line.LN6380822-1,    76.8067,   -59.76,    72.5581,   177.98,    44.3763,    64.64,          0,     0.00,    27.9595,  -122.02,    76.8078,   120.24,    72.5593,    -2.02,     44.377,  -115.37,          0,     0.00,    27.9595,    57.98,          0,     0.00,          0,     0.00,          0,     0.00,          0,     0.00,          0,     0.00
Line.LN5835131-1,    21.9303,   -59.11,    52.7941,   177.98,    39.8479,    63.94,          0,     0.00,    30.5078,   141.86,    21.9311,   120.88,     52.795,    -2.03,    39.8484,  -116.07,          0,     0.00,    30.5078,   -38.14,          0,     0.00,          0,     0.00,          0,     0.00,          0,     0.00,          0,     0.00
Line.LN5803262-7,   0.580531,    64.78,          0,     0.00,          0,     0.00,          0,     0.00,   0.580531,    64.78,   0.580595,  -115.24,          0,     0.00,          0,     0.00,          0,     0.00,   0.580595,  -115.24,          0,     0.00,          0,     0.00,          0,     0.00,          0,     0.00,          0,     0.00
Line.LN81048089-1,    15.8939,   -55.37,          0,     0.00,          0,     0.00,          0,     0.00,    15.8939,   -55.37,    15.8964,   124.60,          0,     0.00,          0,     0.00,          0,     0.00,    15.8964,   124.60,          0,     0.00,          0,     0.00,          0,     0.00,          0,     0.00,          0,     0.00
Line.LN6201699-1,    2.05742,   -55.63,          0,     0.00,          0,     0.00,          0,     0.00,    2.05742,   -55.63,    2.05746,   124.36,          0,     0.00,          0,     0.00,          0,     0.00,    2.05746,   124.36,          0,     0.00,          0,     0.00,          0,     0.00,          0,     0.00,          0,     0.00
Line.LN5746548-1,    53.8354,   -59.54,    14.9858,   178.85,    28.1179,    64.81,          0,     0.00,    31.8759,   -40.41,    53.8354,   120.46,    14.9859,    -1.15,    28.1179,  -115.19,          0,     0.00,    31.8759,   139.59,          0,     0.00,          0,     0.00,          0,     0.00,          0,     0.00,          0,     0.00
Line.LN5835174-1,     35.959,    66.43,          0,     0.00,          0,     0.00,          0,     0.00,     35.959,    66.43,    35.9599,  -113.57,          0,     0.00,          0,     0.00,          0,     0.00,    35.9599,  -113.57,          0,     0.00,          0,     0.00,          0,     0.00,          0,     0.00,          0,     0.00
Line.LN6505947-4,    17.5883,   -59.63,          0,     0.00,          0,     0.00,          0,     0.00,    17.5883,   -59.63,    17.5883,   120.37,          0,     0.00,          0,     0.00,          0,     0.00,    17.5883,   120.37,          0,     0.00,          0,     0.00,          0,     0.00,          0,     0.00,          0,     0.00
Line.LN5683833-1,    29.6825,  -176.61,          0,     0.00,          0,     0.00,          0,     0.00,    29.6825,  -176.61,    29.6834,     3.38,          0,     0.00,          0,     0.00,          0,     0.00,    29.6834,     3.38,          0,     0.00,          0,     0.00,          0,     0.00,          0,     0.00,          0,     0.00
Line.LN5561439-3,    7.24793,   -57.92,    57.7465,   179.68,    5.12933,    65.51,          0,     0.00,    51.7832,  -178.73,    7.24934,   122.04,    57.7482,    -0.33,    5.13019,  -114.54,          0,     0.00,    51.7831,     1.27,          0,     0.00,          0,     0.00,          0,     0.00,          0,     0.00,          0,     0.00
Line.LN6109190-1,    4.60137,   -53.72,          0,     0.00,          0,     0.00,          0,     0.00,    4.60137,   -53.72,    4.60152,   126.27,          0,     0.00,          0,     0.00,          0,     0.00,    4.60152,   126.27,          0,     0.00,          0,     0.00,          0,     0.00,          0,     0.00,          0,     0.00
Line.LN6258435-2,    2.53476,   -59.32,          0,     0.00,          0,     0.00,          0,     0.00,    2.53476,   -59.32,    2.53485,   120.68,          0,     0.00,          0,     0.00,          0,     0.00,    2.53485,   120.68,          0,     0.00,          0,     0.00,          0,     0.00,          0,     0.00,          0,     0.00
Line.LN5804819-1,   0.841507,   179.88,          0,     0.00,          0,     0.00,          0,     0.00,   0.841507,   179.88,    0.84233,    -0.33,          0,     0.00,          0,     0.00,          0,     0.00,    0.84233,    -0.33,          0,     0.00,          0,     0.00,          0,     0.00,          0,     0.00,          0,     0.00
Line.LN5593215-1,    30.9586,   177.82,          0,     0.00,          0,     0.00,          0,     0.00,    30.9586,   177.82,    30.9588,    -2.18,          0,     0.00,          0,     0.00,          0,     0.00,    30.9588,    -2.18,          0,     0.00,          0,     0.00,          0,     0.00,          0,     0.00,          0,     0.00
Line.LN5833717-1,    28.5469,   -59.11,    68.5678,   178.06,    48.6658,    64.00,          0,     0.00,    39.0305,   146.47,    28.5474,   120.89,    68.5683,    -1.94,    48.6661,  -116.01,          0,     0.00,    39.0305,   -33.53,          0,     0.00,          0,     0.00,          0,     0.00,          0,     0.00,          0,     0.00
Line.LN6199557-1,    28.5474,   -59.11,    66.4578,   178.05,    48.6661,    63.99,          0,     0.00,    37.2547,   144.76,    28.5484,   120.88,    66.4589,    -1.95,    48.6667,  -116.01,          0,     0.00,    37.2546,   -35.24,          0,     0.00,          0,     0.00,          0,     0.00,          0,     0.00,          0,     0.00
Line.LN5744332-1,   0.877841,    66.42,          0,     0.00,          0,     0.00,          0,     0.00,   0.877841,    66.42,   0.878121,  -113.65,          0,     0.00,          0,     0.00,          0,     0.00,   0.878121,  -113.65,          0,     0.00,          0,     0.00,          0,     0.00,          0,     0.00,          0,     0.00
Line.LN5558790-1,     404.65,   -50.30,    385.726,  -172.09,    271.691,    77.08,          0,     0.00,    117.769,  -122.25,     404.65,   129.70,    385.726,     7.91,    271.691,  -102.92,          0,     0.00,    117.769,    57.75,          0,     0.00,          0,     0.00,          0,     0.00,          0,     0.00,          0,     0.00
Line.LN6078692-1,    30.4665,    69.92,          0,     0.00,          0,     0.00,          0,     0.00,    30.4665,    69.92,    30.4668,  -110.09,          0,     0.00,          0,     0.00,          0,     0.00,    30.4668,  -110.09,          0,     0.00,          0,     0.00,          0,     0.00,          0,     0.00,          0,     0.00
Line.LN5956482-1,    49.5368,   179.65,          0,     0.00,          0,     0.00,          0,     0.00,    49.5368,   179.65,    49.5368,    -0.35,          0,     0.00,          0,     0.00,          0,     0.00,    49.5368,    -0.35,          0,     0.00,          0,     0.00,          0,     0.00,          0,     0.00,          0,     0.00
Line.LN5593225-1,    1.43544,   177.99,          0,     0.00,          0,     0.00,          0,     0.00,    1.43544,   177.99,    1.43578,    -2.06,          0,     0.00,          0,     0.00,          0,     0.00,    1.43578,    -2.06,          0,     0.00,          0,     0.00,          0,     0.00,          0,     0.00,          0,     0.00
...